# Mol2 file generated by Materials Studio
@<TRIPOS>MOLECULE
"Molecule 1"
16 15 0 0 0 
SMALL
USER_CHARGES


@<TRIPOS>ATOM
1 C1 -16.9729 2.72571 -0.00390643 C.3 0 **** -0.42599
2 C2 -15.6483 1.96585 0.0353606 C.3 0 **** -0.189579
3 N3 -14.5556 2.92002 0.0285898 N.3 0 **** -0.484052
4 C4 -13.2265 2.33877 0.0385201 C.3 0 **** -0.189556
5 C5 -12.1909 3.46067 0.00261056 C.3 0 **** -0.42599
6 H6 -17.8352 2.04391 -0.0589463 H 0 **** 0.118551
7 H7 -17.0032 3.39184 -0.88375 H 0 **** 0.166839
8 H8 -17.0944 3.35766 0.891651 H 0 **** 0.140574
9 H9 -15.6183 1.27184 0.900059 H 0 **** 0.137086
10 H10 -15.5559 1.32873 -0.865565 H 0 **** 0.162174
11 H11 -14.6586 3.58093 0.780355 H 0 **** 0.264739
12 H12 -13.048 1.66753 0.903113 H 0 **** 0.137082
13 H13 -13.1201 1.70482 -0.86276 H 0 **** 0.162163
14 H14 -11.1636 3.06864 -0.0510113 H 0 **** 0.118553
15 H15 -12.268 4.09904 0.898458 H 0 **** 0.140579
16 H16 -12.359 4.10452 -0.878078 H 0 **** 0.166828
@<TRIPOS>BOND
1 1 2 1
2 1 6 1
3 1 7 1
4 1 8 1
5 2 3 1
6 2 9 1
7 2 10 1
8 3 4 1
9 3 11 1
10 4 5 1
11 4 12 1
12 4 13 1
13 5 14 1
14 5 15 1
15 5 16 1
@<TRIPOS>CRYSIN
8.8 8.4 4.6 90 90 120 1 1
