#	Created by:	Discovery Studio
#	Creation time:	2022-09-16T00:22:45Z

@<TRIPOS>MOLECULE
Mol1
   14    13     0 0 0
SMALL
USER_CHARGES


@<TRIPOS>ATOM
      1 C1           -9.647578   -0.198238    0.000000 C.3      1 SUBUNIT    0.0000
      2 C2           -8.244709    0.437024    0.000000 C.3      1 SUBUNIT    0.0000
      3 C3           -6.822999   -0.154874    0.000000 C.3      1 SUBUNIT    0.0000
      4 C4           -5.544938    0.704288    0.000000 C.3      1 SUBUNIT    0.0000
      5 H1          -10.402846    0.587620   -0.000000 H        1 SUBUNIT    0.0000
      6 H2           -9.767109   -0.816298    0.889876 H        1 SUBUNIT    0.0000
      7 H3           -9.767109   -0.816298   -0.889876 H        1 SUBUNIT    0.0000
      8 H4           -8.254366    1.066038   -0.890139 H        1 SUBUNIT    0.0000
      9 H5           -8.254366    1.066038    0.890139 H        1 SUBUNIT    0.0000
     10 H6           -6.761025   -0.780902    0.890139 H        1 SUBUNIT    0.0000
     11 H7           -6.761025   -0.780902   -0.890139 H        1 SUBUNIT    0.0000
     12 H8           -4.669779    0.054597    0.000000 H        1 SUBUNIT    0.0000
     13 H9           -5.529583    1.333613    0.889876 H        1 SUBUNIT    0.0000
     14 H10          -5.529583    1.333613   -0.889876 H        1 SUBUNIT    0.0000
@<TRIPOS>BOND
     1    1    2 1
     2    2    3 1
     3    3    4 1
     4    1    5 1
     5    1    6 1
     6    1    7 1
     7    2    8 1
     8    2    9 1
     9    3   10 1
    10    3   11 1
    11    4   12 1
    12    4   13 1
    13    4   14 1
@<SCITEGIC>ATOM_PROPERTY
Formal Charge
SciTegic.value.StringValue
1 0
2 0
3 0
4 0
5 0
6 0
7 0
8 0
9 0
10 0
11 0
12 0
13 0
14 0

@<SCITEGIC>ATOM_PROPERTY
pdb_tempFactor
SciTegic.value.DoubleValue
1 0.00
2 0.00
3 0.00
4 0.00
5 0.00
6 0.00
7 0.00
8 0.00
9 0.00
10 0.00
11 0.00
12 0.00
13 0.00
14 0.00

@<SCITEGIC>ATOM_PROPERTY
pdb_occupancy
SciTegic.value.DoubleValue
1 1.00
2 1.00
3 1.00
4 1.00
5 1.00
6 1.00
7 1.00
8 1.00
9 1.00
10 1.00
11 1.00
12 1.00
13 1.00
14 1.00

#	Created by:	Discovery Studio
#	Creation time:	2022-09-16T00:22:45Z

@<TRIPOS>MOLECULE
Mol2
   14    13     0 0 0
SMALL
USER_CHARGES


@<TRIPOS>ATOM
      1 C1           -9.647578   -0.198238    0.000000 C.3      1 SUBUNIT    0.0000
      2 C2           -8.244709    0.437024    0.000000 C.3      1 SUBUNIT    0.0000
      3 C3           -6.822999   -0.154874    0.000000 C.3      1 SUBUNIT    0.0000
      4 C4           -5.544938    0.704288    0.000000 C.3      1 SUBUNIT    0.0000
      5 H1          -10.402846    0.587620   -0.000000 H        1 SUBUNIT    0.0000
      6 H2           -9.767109   -0.816298    0.889876 H        1 SUBUNIT    0.0000
      7 H3           -9.767109   -0.816298   -0.889876 H        1 SUBUNIT    0.0000
      8 H4           -8.254366    1.066038   -0.890139 H        1 SUBUNIT    0.0000
      9 H5           -8.254366    1.066038    0.890139 H        1 SUBUNIT    0.0000
     10 H6           -6.761025   -0.780902    0.890139 H        1 SUBUNIT    0.0000
     11 H7           -6.761025   -0.780902   -0.890139 H        1 SUBUNIT    0.0000
     12 H8           -4.669779    0.054597    0.000000 H        1 SUBUNIT    0.0000
     13 H9           -5.529583    1.333613    0.889876 H        1 SUBUNIT    0.0000
     14 H10          -5.529583    1.333613   -0.889876 H        1 SUBUNIT    0.0000
@<TRIPOS>BOND
     1    1    2 1
     2    2    3 1
     3    3    4 1
     4    1    5 1
     5    1    6 1
     6    1    7 1
     7    2    8 1
     8    2    9 1
     9    3   10 1
    10    3   11 1
    11    4   12 1
    12    4   13 1
    13    4   14 1
@<SCITEGIC>ATOM_PROPERTY
Formal Charge
SciTegic.value.StringValue
1 0
2 0
3 0
4 0
5 0
6 0
7 0
8 0
9 0
10 0
11 0
12 0
13 0
14 0

@<SCITEGIC>ATOM_PROPERTY
pdb_tempFactor
SciTegic.value.DoubleValue
1 0.00
2 0.00
3 0.00
4 0.00
5 0.00
6 0.00
7 0.00
8 0.00
9 0.00
10 0.00
11 0.00
12 0.00
13 0.00
14 0.00

@<SCITEGIC>ATOM_PROPERTY
pdb_occupancy
SciTegic.value.DoubleValue
1 1.00
2 1.00
3 1.00
4 1.00
5 1.00
6 1.00
7 1.00
8 1.00
9 1.00
10 1.00
11 1.00
12 1.00
13 1.00
14 1.00

